%chk=C:\G09W\Hw5\ENERGY260.chk
# td b3lyp/3-21g geom=connectivity

Title Card Required

0 1
 C                 -2.94346211   -0.03002862   -0.05633290
 C                 -2.17848058   -0.01508412   -1.21443171
 C                 -0.80012178   -0.00179091   -1.12892669
 C                 -0.16362300   -0.00171800    0.10304300
 C                 -0.93886159   -0.01655134    1.25761072
 C                 -2.31578948   -0.03133006    1.18386519
 H                 -2.66279290   -0.01495164   -2.16977747
 H                 -0.19740748    0.00634024   -2.01248497
 H                 -0.45969543   -0.01586663    2.21590899
 H                 -2.90763095   -0.04284706    2.07663422
 C                 -4.36946866   -0.04446758   -0.13728820
 N                 -5.50818758   -0.05602814   -0.20161146
 N                  1.25905000    0.01871200    0.15430800
 C                  1.97277800    1.15119400   -0.48144800
 H                  1.65629400    1.28548700   -1.51483600
 C                  1.98015500   -1.27080500   -0.05390900
 H                  1.39255300   -1.93480000   -0.67797400
 C                  2.24512900   -1.93770600    1.29774700
 H                  2.85384800   -1.28641300    1.91286800
 H                  1.31183800   -2.12323700    1.81671700
 H                  2.75840000   -2.88444300    1.16572600
 C                  1.75505900    2.44764400    0.29771400
 H                  0.71158200    2.73932300    0.28352200
 H                  2.05846700    2.30057300    1.32676600
 H                  2.33898000    3.25279000   -0.13525200
 C                  3.42444700    0.64976000   -0.45339500
 H                  4.05445800    1.17783500   -1.15692400
 H                  3.82332000    0.77802800    0.54548300
 C                  3.28226200   -0.84938700   -0.78317800
 H                  4.13306800   -1.43368600   -0.45971900
 H                  3.16542000   -0.97407200   -1.85369600

 1 2 1.5 6 1.5 11 1.5
 2 3 2.0 7 1.0
 3 4 1.5 8 1.0
 4 5 1.5 13 1.0
 5 6 2.0 9 1.0
 6 10 1.0
 7
 8
 9
 10
 11 12 3.0
 12
 13 14 1.0 16 1.0
 14 15 1.0 22 1.0 26 1.0
 15
 16 17 1.0 18 1.0 29 1.0
 17
 18 19 1.0 20 1.0 21 1.0
 19
 20
 21
 22 23 1.0 24 1.0 25 1.0
 23
 24
 25
 26 27 1.0 28 1.0 29 1.0
 27
 28
 29 30 1.0 31 1.0
 30
 31

