%chk=C:\G09W\Hw5\energy120.chk
# td b3lyp/3-21g geom=connectivity

Title Card Required

0 1
 C                 -2.94495600   -0.02682600   -0.05489200
 C                 -2.25046900   -1.18768600    0.25607500
 C                 -0.87095000   -1.16877400    0.31875900
 C                 -0.16346600   -0.00171900    0.07313800
 C                 -0.86837800    1.15614400   -0.23782200
 C                 -2.24585600    1.14893100   -0.30172800
 H                 -2.78984900   -2.09314700    0.44700600
 H                 -0.32227000   -2.05450300    0.56050400
 H                 -0.33390400    2.06450000   -0.43059500
 H                 -2.78334600    2.04392200   -0.54160400
 C                 -4.37175700   -0.03894600   -0.12084100
 N                 -5.51109200   -0.04830500   -0.17354800
 N                  1.25859100   -0.01968300    0.14002800
 C                  1.97454698    1.26747267    0.30356657
 H                  1.66730662    1.98762988   -0.45344421
 C                  1.98580431   -0.93871545   -0.78341280
 H                  1.40622764   -1.10359990   -1.68481564
 C                  2.24029161   -2.27644207   -0.08508332
 H                  2.84110991   -2.11657638    0.80179757
 H                  1.30279611   -2.73017568    0.21493728
 H                  2.75785207   -2.96345608   -0.74639284
 C                  1.74533426    1.85309998    1.69632591
 H                  0.70109228    2.09977069    1.84743794
 H                  2.03958154    1.12523927    2.44216313
 H                  2.33065563    2.75674093    1.82866613
 C                  3.42751427    0.84224944    0.04349456
 H                  4.06235551    1.68224457   -0.20573595
 H                  3.81660700    0.35401821    0.92867503
 C                  3.29329678   -0.17147963   -1.11008964
 H                  4.14293628   -0.83643138   -1.18660165
 H                  3.18687797    0.36117437   -2.04825976

 1 2 1.5 6 1.5 11 1.5
 2 3 2.0 7 1.0
 3 4 1.5 8 1.0
 4 5 1.5 13 1.0
 5 6 2.0 9 1.0
 6 10 1.0
 7
 8
 9
 10
 11 12 3.0
 12
 13 14 1.0 16 1.0
 14 15 1.0 22 1.0 26 1.0
 15
 16 17 1.0 18 1.0 29 1.0
 17
 18 19 1.0 20 1.0 21 1.0
 19
 20
 21
 22 23 1.0 24 1.0 25 1.0
 23
 24
 25
 26 27 1.0 28 1.0 29 1.0
 27
 28
 29 30 1.0 31 1.0
 30
 31

