%chk=C:\G09W\Hw5\energy1.chk
# td b3lyp/3-21g geom=connectivity

Title Card Required

0 1
 C                 -2.94547600   -0.03540400   -0.05940200
 C                 -2.29589300   -0.08011600    1.16642600
 C                 -0.91572400   -0.06863700    1.21502400
 C                 -0.16322000   -0.01422900    0.05155600
 C                 -0.82335000    0.03008300   -1.17176300
 C                 -2.20098600    0.02053700   -1.23186700
 H                 -2.87020400   -0.12235100    2.06954600
 H                 -0.40120700   -0.09918300    2.15222500
 H                 -0.25385900    0.07152600   -2.07834800
 H                 -2.70385800    0.05496800   -2.17705500
 C                 -4.37264300   -0.04632100   -0.11712300
 N                 -5.51225800   -0.05499700   -0.16353300
 N                  1.25787400   -0.01042200    0.13827600
 C                  1.98648800    1.21842400   -0.25563600
 H                  1.69422600    1.54689800   -1.25201700
 C                  1.98335800   -1.24074200   -0.29322200
 H                  1.41032700   -1.77222500   -1.04474300
 C                  2.21658000   -2.15209600    0.91383300
 H                  2.81092800   -1.63149400    1.65465700
 H                  1.27139600   -2.42797100    1.36693700
 H                  2.73258400   -3.05923300    0.61713500
 C                  1.75093600    2.34541400    0.74919600
 H                  0.70813900    2.63934600    0.76649600
 H                  2.03022500    2.00527200    1.73860900
 H                  2.34497500    3.21512500    0.48957300
 C                  3.43699700    0.71401100   -0.28961400
 H                  4.08336400    1.36251500   -0.86614000
 H                  3.81248800    0.64950800    0.72436600
 C                  3.30221500   -0.69522000   -0.89979300
 H                  4.14511500   -1.33401300   -0.67315400
 H                  3.21034900   -0.61497400   -1.97697900

 1 2 1.5 6 1.5 11 1.5
 2 3 2.0 7 1.0
 3 4 1.5 8 1.0
 4 5 1.5 13 1.0
 5 6 2.0 9 1.0
 6 10 1.0
 7
 8
 9
 10
 11 12 3.0
 12
 13 14 1.0 16 1.0
 14 15 1.0 22 1.0 26 1.0
 15
 16 17 1.0 18 1.0 29 1.0
 17
 18 19 1.0 20 1.0 21 1.0
 19
 20
 21
 22 23 1.0 24 1.0 25 1.0
 23
 24
 25
 26 27 1.0 28 1.0 29 1.0
 27
 28
 29 30 1.0 31 1.0
 30
 31

