%chk=C:\G09W\Hw5\ENERGY190.chk
# td b3lyp/3-21g geom=connectivity

Title Card Required

0 1
 C                 -2.94405900   -0.04735300   -0.04895100
 C                 -2.20843900   -1.20001400   -0.28737700
 C                 -0.82964100   -1.16367000   -0.21698200
 C                 -0.16357800    0.01354900    0.08862600
 C                 -0.90951900    1.16316800    0.32567400
 C                 -2.28667500    1.13789700    0.25942900
 H                 -2.71568300   -2.11319600   -0.52411700
 H                 -0.24953600   -2.04449900   -0.39481500
 H                 -0.40729500    2.07959400    0.56204000
 H                 -2.85587800    2.02655300    0.44312600
 C                 -4.37037000   -0.07779300   -0.11942800
 N                 -5.50932500   -0.10179500   -0.17560400
 N                  1.25898600    0.01651900    0.14646300
 C                  2.00222419    0.89572594   -0.78664995
 H                  1.69265026    0.72710555   -1.81709630
 C                  1.94922938   -1.29289509    0.33408635
 H                  1.34779943   -2.09784737   -0.07329066
 C                  2.19326083   -1.53841599    1.82476027
 H                  2.81552362   -0.74869952    2.22754327
 H                  1.25395717   -1.54228408    2.36557136
 H                  2.68380719   -2.49326859    1.98226709
 C                  1.81342302    2.36851688   -0.42537793
 H                  0.77740419    2.66624203   -0.53558252
 H                  2.10962963    2.52394502    0.60454441
 H                  2.41823550    2.99749319   -1.06979570
 C                  3.44116469    0.39258335   -0.59727360
 H                  4.08624372    0.67620492   -1.41834696
 H                  3.83960522    0.80009783    0.32385887
 C                  3.26369657   -1.13369714   -0.47321713
 H                  4.09892526   -1.61576478    0.01658509
 H                  3.14753336   -1.56513140   -1.46093047

 1 2 1.5 6 1.5 11 1.5
 2 3 2.0 7 1.0
 3 4 1.5 8 1.0
 4 5 1.5 13 1.0
 5 6 2.0 9 1.0
 6 10 1.0
 7
 8
 9
 10
 11 12 3.0
 12
 13 14 1.0 16 1.0
 14 15 1.0 22 1.0 26 1.0
 15
 16 17 1.0 18 1.0 29 1.0
 17
 18 19 1.0 20 1.0 21 1.0
 19
 20
 21
 22 23 1.0 24 1.0 25 1.0
 23
 24
 25
 26 27 1.0 28 1.0 29 1.0
 27
 28
 29 30 1.0 31 1.0
 30
 31

