%chk=C:\G09W\Hw5\energy100.chk
# td b3lyp/3-21g geom=connectivity

Title Card Required

0 1
 C                  2.94527100    0.01852600   -0.05867000
 C                  2.26962500    1.07950000    0.52822500
 C                  0.88982600    1.06920200    0.58661300
 C                  0.16343200    0.00998700    0.06383600
 C                  0.84955200   -1.04826000   -0.52233500
 C                  2.22711600   -1.04896900   -0.58476900
 H                  2.82367700    1.90136500    0.93419200
 H                  0.35551300    1.87794000    1.03878400
 H                  0.30036100   -1.87256400   -0.93080500
 H                  2.75008000   -1.86695400   -1.03737800
 C                  4.37223900    0.02223800   -0.12196300
 N                  5.51170200    0.02490400   -0.17262600
 N                 -1.25828900    0.03512700    0.13540100
 C                 -1.97328302   -1.22866005    0.43159752
 H                 -1.66959984   -2.02173105   -0.25024002
 C                 -1.99005989    0.85641137   -0.87267061
 H                 -1.41485266    0.92916397   -1.78889463
 C                 -2.24135298    2.25794322   -0.31186739
 H                 -2.83787248    2.18872289    0.58950483
 H                 -1.30248169    2.73933326   -0.06373668
 H                 -2.76218095    2.87480699   -1.03671507
 C                 -1.73729005   -1.67064545    1.87528475
 H                 -0.69229984   -1.90115931    2.04552813
 H                 -2.02803475   -0.87104365    2.54516519
 H                 -2.32185041   -2.55608004    2.10106431
 C                 -3.42754071   -0.83137012    0.13687495
 H                 -4.06346646   -1.69202121   -0.02315191
 H                 -3.81242856   -0.25605788    0.97005309
 C                 -3.29901191    0.06056243   -1.11386558
 H                 -4.14909569    0.71468526   -1.25309141
 H                 -3.19704390   -0.56419847   -1.99391494

 1 2 1.5 6 1.5 11 1.5
 2 3 2.0 7 1.0
 3 4 1.5 8 1.0
 4 5 1.5 13 1.0
 5 6 2.0 9 1.0
 6 10 1.0
 7
 8
 9
 10
 11 12 3.0
 12
 13 14 1.0 16 1.0
 14 15 1.0 22 1.0 26 1.0
 15
 16 17 1.0 18 1.0 29 1.0
 17
 18 19 1.0 20 1.0 21 1.0
 19
 20
 21
 22 23 1.0 24 1.0 25 1.0
 23
 24
 25
 26 27 1.0 28 1.0 29 1.0
 27
 28
 29 30 1.0 31 1.0
 30
 31

