%chk=C:\G09W\Hw5\energy0.chk
# td b3lyp/3-21g geom=connectivity

Title Card Required

0 1
 C                 -2.94502000   -0.05662600   -0.04359000
 C                 -2.28273200    1.01520400    0.53879100
 C                 -0.90259400    1.02713300    0.58817800
 C                 -0.16274300   -0.02167700    0.06329800
 C                 -0.83555500   -1.09112700   -0.51794700
 C                 -2.21322800   -1.11269900   -0.57392500
 H                 -2.84722900    1.82906000    0.94649700
 H                 -0.37824300    1.84767000    1.03065000
 H                 -0.27594300   -1.90832400   -0.92655600
 H                 -2.72589500   -1.93911200   -1.02299000
 C                 -4.37221000   -0.07530300   -0.09871000
 N                 -5.51184500   -0.09049000   -0.14290200
 N                  1.25846600    0.02034900    0.13706100
 C                  1.94180202    1.30883999   -0.12551882
 H                  1.62643137    1.73481786   -1.07692341
 C                  2.01792186   -1.13000298   -0.43400499
 H                  1.45293676   -1.59463397   -1.23433877
 C                  2.29586079   -2.16013875    0.66304154
 H                  2.88236848   -1.70442556    1.45135085
 H                  1.36594011   -2.51576176    1.09148701
 H                  2.83719532   -3.01131008    0.26347547
 C                  1.68260618    2.31000711    0.99953993
 H                  0.63113039    2.56503131    1.05856925
 H                  1.98530320    1.87276780    1.94285042
 H                  2.24479517    3.22245879    0.83204084
 C                  3.40735593    0.86026738   -0.22801548
 H                  4.02499279    1.58956723   -0.73533989
 H                  3.79757113    0.69737456    0.76923162
 C                  3.31059990   -0.47709309   -0.98861965
 H                  4.17657360   -1.10822426   -0.84142617
 H                  3.20252488   -0.28207955   -2.04951487

 1 2 1.5 6 1.5 11 1.5
 2 3 2.0 7 1.0
 3 4 1.5 8 1.0
 4 5 1.5 13 1.0
 5 6 2.0 9 1.0
 6 10 1.0
 7
 8
 9
 10
 11 12 3.0
 12
 13 14 1.0 16 1.0
 14 15 1.0 22 1.0 26 1.0
 15
 16 17 1.0 18 1.0 29 1.0
 17
 18 19 1.0 20 1.0 21 1.0
 19
 20
 21
 22 23 1.0 24 1.0 25 1.0
 23
 24
 25
 26 27 1.0 28 1.0 29 1.0
 27
 28
 29 30 1.0 31 1.0
 30
 31

