%chk=C:\G09W\Hw5\energy140.chk
# td b3lyp/3-21g geom=connectivity

Title Card Required

0 1
 C                 -2.94453300   -0.03717000   -0.05157700
 C                 -2.22918200   -1.22610300   -0.01522600
 C                 -0.85000900   -1.19799100    0.05150300
 C                 -0.16351200    0.00645800    0.08157000
 C                 -0.88923500    1.19229000    0.04452700
 C                 -2.26657300    1.17587900   -0.02069900
 H                 -2.75227900   -2.16049400   -0.03818900
 H                 -0.28539900   -2.10584100    0.08361600
 H                 -0.37109900    2.12983600    0.06635700
 H                 -2.82014900    2.09250700   -0.04885200
 C                 -4.37110700   -0.05874800   -0.11996900
 N                 -5.51026700   -0.07565800   -0.17455200
 N                  1.25884100   -0.00153600    0.14395500
 C                  1.97296108    1.29694285    0.15350870
 H                  1.66120485    1.92366533   -0.68082618
 C                  1.98402790   -1.02073126   -0.66940103
 H                  1.40106382   -1.29023395   -1.54298208
 C                  2.24399003   -2.26773205    0.17874364
 H                  2.84814543   -2.00487216    1.03839303
 H                  1.30862254   -2.68482852    0.53356998
 H                  2.76015610   -3.02628437   -0.40035788
 C                  1.74835030    2.04033632    1.46963639
 H                  0.70426319    2.30140155    1.59552646
 H                  2.04708265    1.40464429    2.29382716
 H                  2.33245487    2.95408747    1.49339695
 C                  3.42566783    0.84645249   -0.06158762
 H                  4.05784286    1.65265708   -0.40960959
 H                  3.81935343    0.46511424    0.87270390
 C                  3.28866975   -0.29482752   -1.08878198
 H                  4.13927780   -0.96293132   -1.09106522
 H                  3.17735055    0.12487540   -2.08209184

 1 2 1.5 6 1.5 11 1.5
 2 3 2.0 7 1.0
 3 4 1.5 8 1.0
 4 5 1.5 13 1.0
 5 6 2.0 9 1.0
 6 10 1.0
 7
 8
 9
 10
 11 12 3.0
 12
 13 14 1.0 16 1.0
 14 15 1.0 22 1.0 26 1.0
 15
 16 17 1.0 18 1.0 29 1.0
 17
 18 19 1.0 20 1.0 21 1.0
 19
 20
 21
 22 23 1.0 24 1.0 25 1.0
 23
 24
 25
 26 27 1.0 28 1.0 29 1.0
 27
 28
 29 30 1.0 31 1.0
 30
 31

