%chk=C:\G09W\Hw5\ENERGY240.chk
# td b3lyp/3-21g geom=connectivity

Title Card Required

0 1
 C                 -2.94329300   -0.05849000   -0.04827700
 C                 -2.17933100   -0.89745300   -0.84772400
 C                 -0.80109700   -0.85589800   -0.76959500
 C                 -0.16367300    0.01696000    0.09913400
 C                 -0.93788700    0.85367800    0.89583800
 C                 -2.31472300    0.81952000    0.82697500
 H                 -2.66436000   -1.57438600   -1.52133600
 H                 -0.19926600   -1.49865100   -1.37678100
 H                 -0.45797600    1.53341100    1.57080700
 H                 -2.90577700    1.46631800    1.44321600
 C                 -4.36918300   -0.09655800   -0.12339900
 N                 -5.50781000   -0.12674700   -0.18314100
 N                  1.25903300    0.03789900    0.14925700
 C                  1.99277009    0.76660383   -0.91221775
 H                  1.68070984    0.43838182   -1.90266028
 C                  1.95908284   -1.22221029    0.53429766
 H                  1.36184889   -2.08437341    0.25932418
 C                  2.21014225   -1.23222210    2.04387016
 H                  2.82829793   -0.38569109    2.31656960
 H                  1.27282330   -1.15821310    2.58307305
 H                  2.70791328   -2.14799690    2.34514598
 C                  1.79496247    2.27635678   -0.78261719
 H                  0.75649850    2.54681573   -0.93284130
 H                  2.09374495    2.59137819    0.20941335
 H                  2.39305786    2.80171194   -1.51948001
 C                  3.43586066    0.30804052   -0.65380916
 H                  4.07600740    0.46510309   -1.51187282
 H                  3.83472435    0.85589245    0.19122035
 C                  3.26951650   -1.18167779   -0.29397169
 H                  4.10983874   -1.57670578    0.26074885
 H                  3.15285214   -1.76168250   -1.20237149

 1 2 1.5 6 1.5 11 1.5
 2 3 2.0 7 1.0
 3 4 1.5 8 1.0
 4 5 1.5 13 1.0
 5 6 2.0 9 1.0
 6 10 1.0
 7
 8
 9
 10
 11 12 3.0
 12
 13 14 1.0 16 1.0
 14 15 1.0 22 1.0 26 1.0
 15
 16 17 1.0 18 1.0 29 1.0
 17
 18 19 1.0 20 1.0 21 1.0
 19
 20
 21
 22 23 1.0 24 1.0 25 1.0
 23
 24
 25
 26 27 1.0 28 1.0 29 1.0
 27
 28
 29 30 1.0 31 1.0
 30
 31

