%chk=C:\G09W\Hw5\energy80.chk
# td b3lyp/3-21g geom=connectivity

Title Card Required

0 1
 C                  2.94545100    0.01532000   -0.06236100
 C                  2.28453500    0.86965800    0.80936400
 C                  0.90453400    0.86530300    0.86357000
 C                  0.16338100    0.01683100    0.05507300
 C                  0.83481100   -0.83528300   -0.81517400
 C                  2.21241800   -0.84023600   -0.87646000
 H                  2.85003900    1.52806300    1.43702100
 H                  0.38143300    1.51544400    1.53266500
 H                  0.27413800   -1.49536900   -1.44594200
 H                  2.72402600   -1.49890700   -1.54866200
 C                  4.37252900    0.01403800   -0.12322700
 N                  5.51207600    0.01276400   -0.17203400
 N                 -1.25802300    0.04320400    0.13226800
 C                 -1.96904595   -1.20461455    0.49764736
 H                 -1.66709484   -2.03171266   -0.14330699
 C                 -1.99631848    0.80939695   -0.91371080
 H                 -1.42571395    0.83515830   -1.83532377
 C                 -2.24768234    2.23788831   -0.42568448
 H                 -2.83967856    2.21484149    0.48101753
 H                 -1.30858000    2.73322321   -0.20770557
 H                 -2.77325445    2.81511210   -1.17919169
 C                 -1.72516352   -1.57012049    1.96127352
 H                 -0.67890101   -1.78960193    2.13815328
 H                 -2.01424779   -0.73710265    2.58988126
 H                 -2.30685205   -2.44355749    2.23591317
 C                 -3.42550819   -0.82580375    0.18977155
 H                 -4.06048419   -1.69474788    0.07809523
 H                 -3.80749347   -0.20839707    0.99364032
 C                 -3.30483501   -0.00024700   -1.10649588
 H                 -4.15688865    0.64422383   -1.27550465
 H                 -3.20589490   -0.66997763   -1.95318563

 1 2 1.5 6 1.5 11 1.5
 2 3 2.0 7 1.0
 3 4 1.5 8 1.0
 4 5 1.5 13 1.0
 5 6 2.0 9 1.0
 6 10 1.0
 7
 8
 9
 10
 11 12 3.0
 12
 13 14 1.0 16 1.0
 14 15 1.0 22 1.0 26 1.0
 15
 16 17 1.0 18 1.0 29 1.0
 17
 18 19 1.0 20 1.0 21 1.0
 19
 20
 21
 22 23 1.0 24 1.0 25 1.0
 23
 24
 25
 26 27 1.0 28 1.0 29 1.0
 27
 28
 29 30 1.0 31 1.0
 30
 31

